12
Lattice="11.192 0.0 0.0 0.0 7.068 0.0 0.0 0.0 6.776" Properties=species:S:1:pos:R:3:occupancy:R:1:bfactor:R:1:residuenames:S:1:atomtypes:S:1:residuenumbers:I:1 pbc="T T T"
C        1.35400000       0.92000000      -0.27000000       0.00000000       0.00000000 RES C         1
O        2.43600000       0.13500000      -0.27000000       0.00000000       0.00000000 RES O         1
O        0.27300000       0.13500000      -0.27000000       0.00000000       0.00000000 RES O         1
O        1.35400000       2.12400000      -0.27000000       0.00000000       0.00000000 RES O         1
C       -0.98100000       0.83200000      -0.27000000       0.00000000       0.00000000 RES C         1
H       -1.74200000       0.05600000      -0.27100000       0.00000000       0.00000000 RES H         1
H       -1.07100000       1.45600000       0.61800000       0.00000000       0.00000000 RES H         1
H       -1.07100000       1.45600000      -1.15800000       0.00000000       0.00000000 RES H         1
C        3.69000000       0.83300000      -0.27000000       0.00000000       0.00000000 RES C         1
H        3.78000000       1.45700000       0.61800000       0.00000000       0.00000000 RES H         1
H        4.45100000       0.05700000      -0.27000000       0.00000000       0.00000000 RES H         1
H        3.78000000       1.45700000      -1.15800000       0.00000000       0.00000000 RES H         1
