16
Properties=species:S:1:pos:R:3 Etot=-19.8762989008 g=T norm=0.0001506 pbc="F F F"
C        1.85709358       0.03856884      -0.73968376
C       -1.54235946       0.26294028       0.52255898
C       -0.19176895       0.97641399       0.45806419
C       -1.23390660      -1.02387091      -0.24075461
C        0.82620503      -0.17979608       0.36592840
O        0.07845417      -1.37151593       0.13913826
H        1.36024831       0.14195970      -1.70170940
H        2.43450494       0.93732688      -0.53813167
H        2.53013722      -0.81316350      -0.78886456
H       -2.35045974       0.83499497       0.07272772
H       -1.80156388       0.02683811       1.55497688
H       -0.01019867       1.60839233       1.32455185
H       -0.13226182       1.59317811      -0.43960844
H       -1.88614716      -1.85922605       0.01785619
H       -1.28925489      -0.85016756      -1.32652468
H        1.35127791      -0.32287318       1.31947466
